/*--------------------------------*- C++ -*----------------------------------*\
| =========                 |                                                 |
| \\      /  F ield         | OpenFOAM: The Open Source CFD Toolbox           |
|  \\    /   O peration     | Version:  v2212                                 |
|   \\  /    A nd           | Website:  www.openfoam.com                      |
|    \\/     M anipulation  |                                                 |
\*---------------------------------------------------------------------------*/
FoamFile
{
    version     2.0;
    format      ascii;
    class       dictionary;
    object      blockMeshDict;
}
// * * * * * * * * * * * * * * * * * * * * * * * * * * * * * * * * * * * * * //

n NNN;

vertices
(
    (-1  1  1)
    (-1 -1  1)
    (-1 -1 -1)
    (-1  1 -1)
    ( 1  1  1)
    ( 1 -1  1)
    ( 1 -1 -1)
    ( 1  1 -1)
);

blocks
(
    hex (0 1 2 3 4 5 6 7) ($n $n $n) simpleGrading (1 1 1)
);

edges
(
);

boundary
(
);


// ************************************************************************* //
